
Circuit: *

Doing analysis at TEMP = 27.000000 and TNOM = 27.000000


No. of Data Rows : 1
********************************************
Operating point
********************************************
op_TAB
@gb[i] = -2.48283e-04
@id[current] = 1.031476e-03
@r1[i] = 2.369026e-04
@r2[i] = -2.48283e-04
@r3[i] = -1.13802e-05
@r4[i] = 1.210639e-03
@r5[i] = 1.279759e-03
@r6[i] = 9.737369e-04
@r7[i] = 9.737369e-04
v(1) = 8.139731e+00
v(2) = 7.896243e+00
v(3) = 7.380521e+00
v(4) = 2.954689e+00
v(5) = 7.931699e+00
v(6) = 1.180782e+01
v(7) = 9.781670e-01
v(8) = 2.954689e+00
hc#branch = 5.773901e-05
va#branch = -2.36903e-04
ve#branch = 9.737369e-04
op_END
ngspice-31 done
