
Circuit: *

********************************************
Transient analysis
********************************************
Doing analysis at TEMP = 27.000000 and TNOM = 27.000000


Initial Transient Solution
--------------------------

Node                                   Voltage
----                                   -------
1                                            0
2                                 -5.65257e-13
3                                 -1.76251e-12
5                                 -4.82939e-13
6                                       8.6837
9                                            0
7                                   1.9179e-13
8                                  2.86705e-13
hd#branch                           0.00286705
ve#branch                         -9.44855e-17
vs#branch                         -5.49969e-16


No. of Data Rows : 2008

The file "trans3.ps" may be printed on a postscript printer.
trans3_FIG
Doing analysis at TEMP = 27.000000 and TNOM = 27.000000


No. of Data Rows : 1

Initial Transient Solution
--------------------------

Node                                   Voltage
----                                   -------
1                                            0
2                                 -5.65257e-13
3                                 -1.76251e-12
5                                 -4.82939e-13
6                                       8.6837
9                                            0
7                                   1.9179e-13
8                                  2.86705e-13
hd#branch                           0.00286705
ve#branch                         -9.44855e-17
vs#branch                         -5.49969e-16


No. of Data Rows : 59
	Node                                  Voltage
	----                                  -------
	----	-------
	V(8)                             -5.69849e-01
	V(7)                             -3.81197e-01
	V(9)                             0.000000e+00
	V(6)                             1.104911e+00
	V(5)                             9.598790e-01
	V(3)                             8.535765e-01
	V(2)                             9.530403e-01
	V(1)                             1.000000e+00

	Source	Current
	------	-------

	@c1[i]                           0.000000e+00
	@gb[i]                           -4.78846e-05
	@r7[i]                           1.877974e-04
	@r6[i]                           1.877974e-04
	@r5[i]                           -4.78846e-05
	@r4[i]                           2.334870e-04
	@r3[i]                           -2.19497e-06
	@r2[i]                           -4.78846e-05
	@r1[i]                           4.568964e-05
	vs#branch                        -4.56896e-05
	ve#branch                        1.877974e-04
	hd#branch                        -1.87797e-04

 Capacitor models (Fixed capacitor)
      model                     C

        cap                     0
         cj                     0
       cjsw                     0
       defw                 1e-05
       defl                     0
     narrow                     0
      short                     0
        del                     0
        tc1                     0
        tc2                     0
         di                     0
      thick                     0
     bv_max                 1e+99

 Resistor models (Simple linear resistor)
      model                     R

        rsh                     0
     narrow                     0
      short                     0
        tc1                     0
        tc2                     0
        tce                     0
       defw                 1e-05
          l                 1e-05
         kf                     0
         af                     0
          r                     0
     bv_max                 1e+99
         lf                     1
         wf                     1
         ef                     1

 Capacitor: Fixed capacitor
     device                    c1
      model                     C
capacitance                 1e-06
      dtemp                     0
     bv_max                 1e+99
          i           6.17895e-05
          p            6.9928e-05

 CCVS: Linear current controlled current source
     device                    hd
          i          -0.000209678
          v               1.20465
          p          -0.000252589

 Resistor: Simple linear resistor
     device                    r7                    r6                    r5
      model                     R                     R                     R
 resistance               1004.55               2029.83               3028.79
         ac               1004.55               2029.83               3028.79
      dtemp                     0                     0                     0
     bv_max                 1e+99                 1e+99                 1e+99
      noisy                     1                     1                     1
          i           0.000147889           0.000147889           2.40808e-05
          p           2.19706e-05           4.43947e-05           1.75635e-06

 Resistor: Simple linear resistor
     device                    r4                    r3                    r2
      model                     R                     R                     R
 resistance               4111.06               3115.62               2077.16
         ac               4111.06               3115.62               2077.16
      dtemp                     0                     0                     0
     bv_max                 1e+99                 1e+99                 1e+99
      noisy                     1                     1                     1
          i           0.000183869          -1.72852e-06          -3.77087e-05
          p           0.000138986           9.30883e-09           2.95361e-06

 Resistor: Simple linear resistor
     device                    r1
      model                     R
 resistance                1027.8
         ac                1027.8
      dtemp                     0
     bv_max                 1e+99
      noisy                     1
          i           3.59802e-05
          p           1.33056e-06

 VCCS: Voltage controlled current source
     device                    gb
          m                     0
          i          -3.77087e-05
          v             0.0107768
          p           -4.0638e-07

 Vsource: Independent voltage source
     device                    ve                    vs
         dc                     0                     1
      acmag                     0                     1
      pulse         -                     0
                                    6.28319
                                          1
        sin         -                     0
                                    6.28319
                                          1
        exp         -                     0
                                    6.28319
                                          1
        pwl         -                     0
                                    6.28319
                                          1
       sffm         -                     0
                                    6.28319
                                          1
         am         -                     0
                                    6.28319
                                          1
    trnoise         -                     0
                                    6.28319
                                          1
   trrandom         -                     0
                                    6.28319
                                          1
          i           0.000147889          -3.59802e-05
          p                    -0           2.83341e-05


Total analysis time (seconds) = 0.008

Total elapsed time (seconds) = 0.011 

Total DRAM available = 15826.645 MB.
DRAM currently available = 11752.047 MB.
Total ngspice program size =   22.258 MB.
Resident set size =   10.238 MB.
Shared ngspice pages =    8.082 MB.
Text (code) pages =    5.070 MB.
Stack = 0 bytes.
Library pages =    2.516 MB.

