
Circuit: *

********************************************
Transient analysis
********************************************
Doing analysis at TEMP = 27.000000 and TNOM = 27.000000


Initial Transient Solution
--------------------------

Node                                   Voltage
----                                   -------
1                                            0
2                                 -5.65257e-13
3                                 -1.76251e-12
5                                 -4.82939e-13
6                                       8.6837
9                                            0
7                                   1.9179e-13
8                                  2.86705e-13
hd#branch                           0.00286705
ve#branch                         -9.44855e-17
vs#branch                         -5.49969e-16


No. of Data Rows : 2008

The file "trans4.ps" may be printed on a postscript printer.
trans4_FIG
********************************************
Frequency analysis
********************************************
Doing analysis at TEMP = 27.000000 and TNOM = 27.000000


No. of Data Rows : 71

The file "db.ps" may be printed on a postscript printer.
db_FIG

The file "ph.ps" may be printed on a postscript printer.
ph_FIG
Doing analysis at TEMP = 27.000000 and TNOM = 27.000000


No. of Data Rows : 1

Initial Transient Solution
--------------------------

Node                                   Voltage
----                                   -------
1                                            0
2                                 -5.65257e-13
3                                 -1.76251e-12
5                                 -4.82939e-13
6                                       8.6837
9                                            0
7                                   1.9179e-13
8                                  2.86705e-13
hd#branch                           0.00286705
ve#branch                         -9.44855e-17
vs#branch                         -5.49969e-16


No. of Data Rows : 101
	Node                                  Voltage
	----                                  -------
	----	-------
	V(8)                             0.000000e+00
	V(7)                             0.000000e+00
	V(9)                             0.000000e+00
	V(6)                             0.000000e+00
	V(5)                             0.000000e+00
	V(3)                             0.000000e+00
	V(2)                             0.000000e+00
	V(1)                             0.000000e+00

	Source	Current
	------	-------

	@c1[i]                           0.000000e+00
	@gb[i]                           0.000000e+00
	@r7[i]                           0.000000e+00
	@r6[i]                           0.000000e+00
	@r5[i]                           0.000000e+00
	@r4[i]                           0.000000e+00
	@r3[i]                           0.000000e+00
	@r2[i]                           0.000000e+00
	@r1[i]                           0.000000e+00
	vs#branch                        0.000000e+00
	ve#branch                        0.000000e+00
	hd#branch                        0.000000e+00

 Capacitor models (Fixed capacitor)
      model                     C

        cap                     0
         cj                     0
       cjsw                     0
       defw                 1e-05
       defl                     0
     narrow                     0
      short                     0
        del                     0
        tc1                     0
        tc2                     0
         di                     0
      thick                     0
     bv_max                 1e+99

 Resistor models (Simple linear resistor)
      model                     R

        rsh                     0
     narrow                     0
      short                     0
        tc1                     0
        tc2                     0
        tce                     0
       defw                 1e-05
          l                 1e-05
         kf                     0
         af                     0
          r                     0
     bv_max                 1e+99
         lf                     1
         wf                     1
         ef                     1

 Capacitor: Fixed capacitor
     device                    c1
      model                     C
capacitance                 1e-06
      dtemp                     0
     bv_max                 1e+99
          i           2.27833e-05
          p          -1.57217e-06

 CCVS: Linear current controlled current source
     device                    hd
          i          -2.27833e-05
          v          -6.99068e-15
          p            1.5927e-19

 Resistor: Simple linear resistor
     device                    r7                    r6                    r5
      model                     R                     R                     R
 resistance               1004.55               2029.83               3028.79
         ac               1004.55               2029.83               3028.79
      dtemp                     0                     0                     0
     bv_max                 1e+99                 1e+99                 1e+99
      noisy                     1                     1                     1
          i          -8.58212e-19          -8.58212e-19           2.27833e-05
          p           7.39879e-34           1.49503e-33           1.57217e-06

 Resistor: Simple linear resistor
     device                    r4                    r3                    r2
      model                     R                     R                     R
 resistance               4111.06               3115.62               2077.16
         ac               4111.06               3115.62               2077.16
      dtemp                     0                     0                     0
     bv_max                 1e+99                 1e+99                 1e+99
      noisy                     1                     1                     1
          i          -1.06701e-18           2.80137e-20           6.11136e-19
          p           4.68047e-33           2.44505e-36           7.75793e-34

 Resistor: Simple linear resistor
     device                    r1
      model                     R
 resistance                1027.8
         ac                1027.8
      dtemp                     0
     bv_max                 1e+99
      noisy                     1
          i          -5.83123e-19
          p           3.49484e-34

 VCCS: Voltage controlled current source
     device                    gb
          m                     0
          i           6.11136e-19
          v            -0.0690057
          p          -4.21719e-20

 Vsource: Independent voltage source
     device                    ve                    vs
         dc                     0                     0
      acmag                     0                     1
      pulse         -                     0
                                          1
                                       1000
        sin         -                     0
                                          1
                                       1000
        exp         -                     0
                                          1
                                       1000
        pwl         -                     0
                                          1
                                       1000
       sffm         -                     0
                                          1
                                       1000
         am         -                     0
                                          1
                                       1000
    trnoise         -                     0
                                          1
                                       1000
   trrandom         -                     0
                                          1
                                       1000
          i          -8.58212e-19           5.83123e-19
          p                     0           2.85648e-33


Total analysis time (seconds) = 0.008

Total elapsed time (seconds) = 0.012 

Total DRAM available = 15826.645 MB.
DRAM currently available = 10627.445 MB.
Total ngspice program size =   22.664 MB.
Resident set size =   10.855 MB.
Shared ngspice pages =    8.188 MB.
Text (code) pages =    5.070 MB.
Stack = 0 bytes.
Library pages =    2.922 MB.

