
Circuit: *

Doing analysis at TEMP = 27.000000 and TNOM = 27.000000


No. of Data Rows : 1
********************************************
Operating point
********************************************
op2_TAB
@gb[i] = 3.571179e-18
@r1[i] = -3.40748e-18
@r2[i] = 3.571179e-18
@r3[i] = 1.636985e-19
@r4[i] = 7.278356e-19
@r5[i] = -2.86705e-03
@r6[i] = 5.854099e-19
@r7[i] = 5.854099e-19
v(2) = 3.502198e-15
v(3) = 1.092010e-14
v(5) = 2.992175e-15
v(6) = 8.683696e+00
v(7) = -1.18828e-15
v(8) = -1.77636e-15
v(9) = 0.000000e+00
hd#branch = 2.867051e-03
ve#branch = 5.854099e-19
vx#branch = -2.86705e-03
op2_END
ngspice-31 done
