
Circuit: *

Doing analysis at TEMP = 27.000000 and TNOM = 27.000000


No. of Data Rows : 1
********************************************
Operating point
********************************************
op_TAB
@gb[i] = -2.48283e-04
@r1[i] = 2.369026e-04
@r2[i] = -2.48283e-04
@r3[i] = -1.13802e-05
@r4[i] = -1.21064e-03
@r5[i] = -2.48283e-04
@r6[i] = 9.737369e-04
@r7[i] = 9.737369e-04
v(1) = 5.185042e+00
v(2) = 4.941554e+00
v(3) = 4.425832e+00
v(5) = 4.977011e+00
v(6) = 5.729007e+00
v(7) = -1.97652e+00
v(8) = -2.95469e+00
v(9) = 0.000000e+00
hd#branch = -9.73737e-04
ve#branch = 9.737369e-04
vs#branch = -2.36903e-04
op_END
ngspice-31 done
